# generated using pymatgen
data_CrPdO2
_symmetry_space_group_name_H-M   'P 1'
_cell_length_a   5.07144472
_cell_length_b   5.07144472
_cell_length_c   36.24340057
_cell_angle_alpha   90.00000000
_cell_angle_beta   90.00000000
_cell_angle_gamma   60.00000000
_symmetry_Int_Tables_number   1
_chemical_formula_structural   CrPdO2
_chemical_formula_sum   'Cr18 Pd18 O36'
_cell_volume   807.27771205
_cell_formula_units_Z   18
loop_
 _symmetry_equiv_pos_site_id
 _symmetry_equiv_pos_as_xyz
  1  'x, y, z'
loop_
 _atom_site_type_symbol
 _atom_site_label
 _atom_site_symmetry_multiplicity
 _atom_site_fract_x
 _atom_site_fract_y
 _atom_site_fract_z
 _atom_site_occupancy
  O  O0  1  0.33333333  0.33333333  0.80318500  1
  O  O1  1  0.33333333  0.33333333  0.30318500  1
  O  O2  1  0.00000000  0.00000000  0.80318500  1
  O  O3  1  0.00000000  0.00000000  0.30318500  1
  O  O4  1  0.66666667  0.66666667  0.80318500  1
  O  O5  1  0.66666667  0.66666667  0.30318500  1
  O  O6  1  0.33333333  0.33333333  0.19681500  1
  O  O7  1  0.33333333  0.33333333  0.69681500  1
  O  O8  1  0.00000000  0.00000000  0.19681500  1
  O  O9  1  0.00000000  0.00000000  0.69681500  1
  O  O10  1  0.66666667  0.66666667  0.19681500  1
  O  O11  1  0.66666667  0.66666667  0.69681500  1
  O  O12  1  0.66666667  0.33333333  0.96985167  1
  O  O13  1  0.66666667  0.33333333  0.46985167  1
  O  O14  1  0.33333333  1.00000000  0.96985167  1
  O  O15  1  0.33333333  1.00000000  0.46985167  1
  O  O16  1  0.00000000  0.66666667  0.96985167  1
  O  O17  1  0.00000000  0.66666667  0.46985167  1
  O  O18  1  0.66666667  0.33333333  0.86348167  1
  O  O19  1  0.66666667  0.33333333  0.36348167  1
  O  O20  1  0.33333333  1.00000000  0.86348167  1
  O  O21  1  0.33333333  1.00000000  0.36348167  1
  O  O22  1  0.00000000  0.66666667  0.86348167  1
  O  O23  1  0.00000000  0.66666667  0.36348167  1
  O  O24  1  0.33333333  0.66666667  0.13651834  1
  O  O25  1  0.33333333  0.66666667  0.63651834  1
  O  O26  1  1.00000000  0.33333333  0.13651834  1
  O  O27  1  1.00000000  0.33333333  0.63651834  1
  O  O28  1  0.66666667  0.00000000  0.13651834  1
  O  O29  1  0.66666667  0.00000000  0.63651834  1
  O  O30  1  0.33333333  0.66666667  0.03014834  1
  O  O31  1  0.33333333  0.66666667  0.53014834  1
  O  O32  1  1.00000000  0.33333333  0.03014834  1
  O  O33  1  1.00000000  0.33333333  0.53014834  1
  O  O34  1  0.66666667  0.00000000  0.03014834  1
  O  O35  1  0.66666667  0.00000000  0.53014834  1
  Cr  Cr36  1  0.33333333  0.33333333  0.00000000  1
  Cr  Cr37  1  0.33333333  0.33333333  0.50000000  1
  Cr  Cr38  1  0.00000000  0.00000000  0.00000000  1
  Cr  Cr39  1  0.00000000  0.00000000  0.50000000  1
  Cr  Cr40  1  0.66666667  0.66666667  0.00000000  1
  Cr  Cr41  1  0.66666667  0.66666667  0.50000000  1
  Cr  Cr42  1  0.66666667  0.33333333  0.16666667  1
  Cr  Cr43  1  0.66666667  0.33333333  0.66666667  1
  Cr  Cr44  1  0.33333333  1.00000000  0.16666667  1
  Cr  Cr45  1  0.33333333  1.00000000  0.66666667  1
  Cr  Cr46  1  0.00000000  0.66666667  0.16666667  1
  Cr  Cr47  1  0.00000000  0.66666667  0.66666667  1
  Cr  Cr48  1  0.33333333  0.66666667  0.83333334  1
  Cr  Cr49  1  0.33333333  0.66666667  0.33333334  1
  Cr  Cr50  1  1.00000000  0.33333333  0.83333334  1
  Cr  Cr51  1  1.00000000  0.33333333  0.33333334  1
  Cr  Cr52  1  0.66666667  0.00000000  0.83333334  1
  Cr  Cr53  1  0.66666667  0.00000000  0.33333334  1
  Pd  Pd54  1  0.33333333  0.33333333  0.75000000  1
  Pd  Pd55  1  0.33333333  0.33333333  0.25000000  1
  Pd  Pd56  1  0.00000000  0.00000000  0.75000000  1
  Pd  Pd57  1  0.00000000  0.00000000  0.25000000  1
  Pd  Pd58  1  0.66666667  0.66666667  0.75000000  1
  Pd  Pd59  1  0.66666667  0.66666667  0.25000000  1
  Pd  Pd60  1  0.66666667  0.33333333  0.91666667  1
  Pd  Pd61  1  0.66666667  0.33333333  0.41666667  1
  Pd  Pd62  1  0.33333333  1.00000000  0.91666667  1
  Pd  Pd63  1  0.33333333  1.00000000  0.41666667  1
  Pd  Pd64  1  0.00000000  0.66666667  0.91666667  1
  Pd  Pd65  1  0.00000000  0.66666667  0.41666667  1
  Pd  Pd66  1  0.33333333  0.66666667  0.08333334  1
  Pd  Pd67  1  0.33333333  0.66666667  0.58333334  1
  Pd  Pd68  1  1.00000000  0.33333333  0.08333334  1
  Pd  Pd69  1  1.00000000  0.33333333  0.58333334  1
  Pd  Pd70  1  0.66666667  0.00000000  0.08333334  1
  Pd  Pd71  1  0.66666667  0.00000000  0.58333334  1
loop_
 _atom_site_moment_label
 _atom_site_moment_crystalaxis_x
 _atom_site_moment_crystalaxis_y
 _atom_site_moment_crystalaxis_z
  Cr36  -0.67502292  -0.01374354  0.73135400
  Cr37  -0.80594864  -0.27104968  -0.24192200
  Cr38  0.28938066  0.00589267  0.95630500
  Cr39  0.22895056  0.07699872  0.96126200
  Cr40  -0.96440358  -0.01963621  -0.22495100
  Cr41  0.57699809  0.19405096  -0.71934000
  Cr42  0.57699809  0.19405096  -0.71934000
  Cr43  -0.96440358  -0.01963621  -0.22495100
  Cr44  0.22895056  0.07699872  0.96126200
  Cr45  0.28938066  0.00589267  0.95630500
  Cr46  -0.80594864  -0.27104968  -0.24192200
  Cr47  0.67502292  0.01374354  -0.73135400
  Cr48  0.28938066  0.00589267  0.95630500
  Cr49  0.22895056  0.07699872  0.96126200
  Cr50  0.67502292  0.01374354  -0.73135400
  Cr51  -0.80594864  -0.27104968  -0.24192200
  Cr52  -0.96440358  -0.01963621  -0.22495100
  Cr53  0.57699809  0.19405096  -0.71934000
